$DATA1 SOURCE='HSPICE' VERSION='L-2016.03-2 win64' PARAM_COUNT=4
.TITLE '*****************************************************'
 index            f2               f3               f3              
                  tplh1            tphl1            tp1             
                  tplh2            tphl2            tp2             
                  tplh3            tphl3            tp3             
                  tplh4            tphl4            tp4             
                  tp_total         temper           alter#          
 1                   4.0000          16.0000          64.0000       
                   8.760e-012       7.959e-012       8.360e-012     
                   2.010e-011       1.762e-011       1.886e-011     
                   6.522e-012       5.460e-012       5.991e-012     
                   8.421e-012       7.054e-012       7.738e-012     
                   4.095e-011        25.0000        1               
 2                   4.0000          15.0000          60.0000       
                   8.752e-012       7.837e-012       8.295e-012     
                   1.898e-011       1.654e-011       1.776e-011     
                   6.531e-012       5.494e-012       6.012e-012     
                   8.342e-012       7.227e-012       7.785e-012     
                   3.986e-011        25.0000        1               
 3                   4.0000          20.0000          80.0000       
                   8.741e-012       8.116e-012       8.428e-012     
                   2.427e-011       2.103e-011       2.265e-011     
                   7.162e-012       5.696e-012       6.429e-012     
                   8.647e-012       7.211e-012       7.929e-012     
                   4.543e-011        25.0000        1               
 4                   5.0000          16.0000          64.0000       
                   9.935e-012       8.942e-012       9.439e-012     
                   1.678e-011       1.499e-011       1.588e-011     
                   6.043e-012       5.158e-012       5.600e-012     
                   7.837e-012       6.674e-012       7.255e-012     
                   3.818e-011        25.0000        1               
 5                   5.0000          15.0000          60.0000       
                   1.003e-011       8.956e-012       9.492e-012     
                   1.589e-011       1.428e-011       1.509e-011     
                   5.821e-012       5.190e-012       5.506e-012     
                   7.631e-012       6.846e-012       7.238e-012     
                   3.732e-011        25.0000        1               
 6                   5.0000          20.0000          80.0000       
                   9.895e-012       8.932e-012       9.414e-012     
                   2.042e-011       1.789e-011       1.916e-011     
                   6.435e-012       5.090e-012       5.762e-012     
                   8.273e-012       6.619e-012       7.446e-012     
                   4.178e-011        25.0000        1               
