$DATA1 SOURCE='HSPICE' VERSION='L-2016.03-2 win64' PARAM_COUNT=1
.TITLE '*****************************************************'
 supply           tplh1            tphl1            tp1             
                  tplh2            tphl2            tp2             
                  tplh3            tphl3            tp3             
                  tplh4            tphl4            tp4             
                  tp_total         avgpower         edp             
                  temper           alter#          
    0.5000         1.353e-011       1.234e-011       1.294e-011     
                   9.709e-012       9.879e-012       9.794e-012     
                   1.035e-011       9.927e-012       1.014e-011     
                   6.975e-012       9.558e-012       8.267e-012     
                   4.114e-011      -1.274e-005       2.155e-026     
                    25.0000        1               
    0.5200         1.322e-011       1.194e-011       1.258e-011     
                   9.178e-012       9.095e-012       9.136e-012     
                   9.949e-012       9.397e-012       9.673e-012     
                   6.654e-012       8.883e-012       7.769e-012     
                   3.915e-011      -1.403e-005       2.151e-026     
                    25.0000        1               
    0.5400         1.276e-011       1.165e-011       1.220e-011     
                   8.535e-012       8.501e-012       8.518e-012     
                   9.482e-012       9.019e-012       9.250e-012     
                   6.115e-012       8.401e-012       7.258e-012     
                   3.723e-011      -1.530e-005       2.121e-026     
                    25.0000        1               
    0.5600         1.258e-011       1.135e-011       1.196e-011     
                   8.242e-012       8.061e-012       8.151e-012     
                   9.046e-012       8.495e-012       8.771e-012     
                   6.029e-012       8.000e-012       7.014e-012     
                   3.590e-011      -1.665e-005       2.146e-026     
                    25.0000        1               
    0.5800         1.190e-011       1.114e-011       1.152e-011     
                   7.738e-012       7.719e-012       7.728e-012     
                   8.662e-012       8.193e-012       8.428e-012     
                   5.719e-012       7.683e-012       6.701e-012     
                   3.437e-011      -1.812e-005       2.141e-026     
                    25.0000        1               
    0.6000         1.170e-011       1.078e-011       1.124e-011     
                   7.568e-012       7.394e-012       7.481e-012     
                   8.352e-012       7.927e-012       8.139e-012     
                   5.428e-012       7.122e-012       6.275e-012     
                   3.314e-011      -1.958e-005       2.149e-026     
                    25.0000        1               
    0.6200         1.137e-011       1.035e-011       1.086e-011     
                   7.251e-012       7.105e-012       7.178e-012     
                   8.065e-012       7.598e-012       7.832e-012     
                   5.415e-012       6.855e-012       6.135e-012     
                   3.201e-011      -2.125e-005       2.177e-026     
                    25.0000        1               
    0.6400         1.118e-011       1.032e-011       1.075e-011     
                   6.976e-012       6.845e-012       6.910e-012     
                   7.730e-012       7.412e-012       7.571e-012     
                   5.205e-012       6.692e-012       5.949e-012     
                   3.118e-011      -2.299e-005       2.235e-026     
                    25.0000        1               
    0.6600         1.090e-011       1.012e-011       1.051e-011     
                   6.549e-012       6.481e-012       6.515e-012     
                   7.559e-012       7.215e-012       7.387e-012     
                   5.010e-012       6.431e-012       5.720e-012     
                   3.013e-011      -2.469e-005       2.242e-026     
                    25.0000        1               
    0.6800         1.076e-011       1.005e-011       1.040e-011     
                   6.256e-012       6.250e-012       6.253e-012     
                   7.325e-012       6.985e-012       7.155e-012     
                   4.961e-012       6.297e-012       5.629e-012     
                   2.944e-011      -2.653e-005       2.299e-026     
                    25.0000        1               
    0.7000         1.078e-011       9.772e-012       1.028e-011     
                   6.288e-012       5.996e-012       6.142e-012     
                   7.198e-012       6.718e-012       6.958e-012     
                   5.033e-012       6.207e-012       5.620e-012     
                   2.900e-011      -2.853e-005       2.399e-026     
                    25.0000        1               
    0.7200         1.032e-011       9.685e-012       1.000e-011     
                   5.950e-012       5.951e-012       5.950e-012     
                   6.992e-012       6.544e-012       6.768e-012     
                   4.860e-012       6.026e-012       5.443e-012     
                   2.816e-011      -3.070e-005       2.435e-026     
                    25.0000        1               
    0.7400         1.039e-011       9.144e-012       9.768e-012     
                   6.297e-012       5.619e-012       5.958e-012     
                   6.883e-012       6.435e-012       6.659e-012     
                   4.736e-012       5.783e-012       5.260e-012     
                   2.765e-011      -3.277e-005       2.505e-026     
                    25.0000        1               
    0.7600         1.002e-011       9.275e-012       9.650e-012     
                   5.850e-012       5.755e-012       5.802e-012     
                   6.692e-012       6.322e-012       6.507e-012     
                   4.667e-012       5.742e-012       5.205e-012     
                   2.716e-011      -3.506e-005       2.587e-026     
                    25.0000        1               
    0.7800         9.884e-012       9.143e-012       9.514e-012     
                   5.715e-012       5.663e-012       5.689e-012     
                   6.574e-012       6.162e-012       6.368e-012     
                   4.616e-012       5.571e-012       5.094e-012     
                   2.667e-011      -3.733e-005       2.655e-026     
                    25.0000        1               
    0.8000         1.013e-011       8.669e-012       9.398e-012     
                   6.123e-012       5.154e-012       5.638e-012     
                   6.389e-012       5.950e-012       6.169e-012     
                   4.663e-012       5.355e-012       5.009e-012     
                   2.621e-011      -3.979e-005       2.735e-026     
                    25.0000        1               
    0.8200         9.778e-012       8.547e-012       9.163e-012     
                   6.053e-012       5.279e-012       5.666e-012     
                   6.271e-012       5.853e-012       6.062e-012     
                   4.665e-012       5.254e-012       4.959e-012     
                   2.585e-011      -4.230e-005       2.827e-026     
                    25.0000        1               
    0.8400         9.981e-012       8.466e-012       9.224e-012     
                   5.905e-012       4.944e-012       5.425e-012     
                   6.136e-012       5.773e-012       5.954e-012     
                   4.638e-012       5.183e-012       4.910e-012     
                   2.551e-011      -4.487e-005       2.921e-026     
                    25.0000        1               
    0.8600         9.342e-012       8.533e-012       8.938e-012     
                   5.508e-012       5.328e-012       5.418e-012     
                   6.041e-012       5.696e-012       5.869e-012     
                   4.356e-012       5.078e-012       4.717e-012     
                   2.494e-011      -4.762e-005       2.963e-026     
                    25.0000        1               
    0.8800         9.717e-012       8.559e-012       9.138e-012     
                   5.288e-012       4.855e-012       5.072e-012     
                   5.977e-012       5.634e-012       5.806e-012     
                   4.407e-012       5.069e-012       4.738e-012     
                   2.475e-011      -5.039e-005       3.088e-026     
                    25.0000        1               
    0.9000         9.125e-012       8.317e-012       8.721e-012     
                   5.377e-012       5.216e-012       5.296e-012     
                   5.847e-012       5.494e-012       5.671e-012     
                   4.382e-012       4.937e-012       4.659e-012     
                   2.435e-011      -5.332e-005       3.161e-026     
                    25.0000        1               
    0.9200         9.264e-012       8.062e-012       8.663e-012     
                   5.615e-012       4.865e-012       5.240e-012     
                   5.860e-012       5.398e-012       5.629e-012     
                   4.317e-012       4.840e-012       4.579e-012     
                   2.411e-011      -5.646e-005       3.282e-026     
                    25.0000        1               
    0.9400         9.587e-012       8.057e-012       8.822e-012     
                   5.372e-012       4.602e-012       4.987e-012     
                   5.797e-012       5.255e-012       5.526e-012     
                   4.282e-012       4.765e-012       4.524e-012     
                   2.386e-011      -5.954e-005       3.389e-026     
                    25.0000        1               
    0.9600         9.125e-012       8.085e-012       8.605e-012     
                   5.138e-012       4.910e-012       5.024e-012     
                   5.711e-012       5.148e-012       5.430e-012     
                   4.239e-012       4.719e-012       4.479e-012     
                   2.354e-011      -6.279e-005       3.479e-026     
                    25.0000        1               
    0.9800         8.833e-012       8.022e-012       8.427e-012     
                   5.339e-012       5.029e-012       5.184e-012     
                   5.642e-012       5.280e-012       5.461e-012     
                   4.183e-012       4.643e-012       4.413e-012     
                   2.349e-011      -6.644e-005       3.665e-026     
                    25.0000        1               
    1.0000         8.905e-012       7.918e-012       8.412e-012     
                   5.044e-012       4.896e-012       4.970e-012     
                   5.574e-012       4.972e-012       5.273e-012     
                   4.218e-012       4.556e-012       4.387e-012     
                   2.304e-011      -6.953e-005       3.692e-026     
                    25.0000        1               
