$DATA1 SOURCE='HSPICE' VERSION='L-2016.03-2 win64' PARAM_COUNT=0
.TITLE '*****************************************************'
 tplh1            tphl1            tp1              tplh2           
 tphl2            tp2              tp_total         temper          
 alter#          
  2.029e-011       1.816e-011       1.923e-011       2.862e-011     
  2.466e-011       2.664e-011       4.586e-011        25.0000       
1               
