$DATA1 SOURCE='HSPICE' VERSION='L-2016.03-2 win64' PARAM_COUNT=0
.TITLE '*****************************************************'
 tplh1            tphl1            tp1              tplh2           
 tphl2            tp2              tplh3            tphl3           
 tp3              tp_total         temper           alter#          
  1.126e-011       1.014e-011       1.070e-011       1.025e-011     
  9.717e-012       9.982e-012       1.155e-011       1.042e-011     
  1.098e-011       3.167e-011        25.0000        1               
